timestep 1 # 1 fs
variable strain equal 0.2214028
variable strain_rate_s equal 200000000.0
variable dir equal 2
# dir 1 means x
# dir 2 means y
# dir 3 means z
##############################
### Force Field Parameters ###
##############################
# Insert your force field parameters here
atom_style	full
bond_style hybrid class2 morse
angle_style class2
dihedral_style class2
improper_style class2
special_bonds lj/coul 0 0 1
pair_style lj/class2/coul/long 10.0
pair_modify mix sixthpower
kspace_style pppm 1e-6
read_data       PA6_10052023_IFFREq_180S1.dat.gz
Reading data file ...
  orthogonal box = (-15.87319 -18.438657 -13.33801) to (15.87319 18.438657 13.33801)
  reading atoms ...
  3459 atoms
  reading velocities ...
  3459 velocities
  scanning bonds ...
  scanning angles ...
  scanning dihedrals ...
  scanning impropers ...
  reading bonds ...
  3446 bonds
  reading angles ...
  6493 angles
  reading dihedrals ...
  9334 dihedrals
  reading impropers ...
  3960 impropers
Finding 1-2 1-3 1-4 neighbors ...
     4 = max # of 1-2 neighbors
     6 = max # of 1-3 neighbors
    10 = max # of special neighbors

# Include IFF-R bond coefficients for PA6 example
include PA6_IFFR.coeff
# IFF-R bond coefficients for Nylon 6
bond_coeff 1 class2 0.965 532.506 -1282.9 2004.77
bond_coeff 2 class2 1.34 400 0 0
bond_coeff 3 morse 82.696 1.941 1.514
bond_coeff 4 class2 1.216 823.795 -1878.79 2303.53
bond_coeff 5 class2 1.101 345 -691.89 844.6
bond_coeff 6 morse 82.696 1.914 1.53
bond_coeff 7 morse 72.897 2.25 1.457
bond_coeff 8 class2 1.006 466.74 -1073.6 1251.11
bond_coeff 9 morse 72.897 2.12 1.452
bond_coeff 10 morse 72.897 2.22 1.416
bond_coeff 11 class2 0.97 563.28 -1428.22 1902.12
bond_coeff 12 class2 1.01 462.75 -1053.63 1545.76
bond_coeff 13 class2 1.3649 368.731 -832.478 1274.02
bond_coeff 14 class2 1.202 851.14 -1918.49 2160.77
bond_coeff 15 morse 82.696 1.74 1.5202

variable        strain_rate_fs equal 200000000*1e-15
variable        totaltime equal 0.2214028/2e-07
variable        steps equal $(round(v_totaltime/dt))
variable        steps equal 1107014
variable        quarter_steps equal $(floor(v_steps/4))
variable        quarter_steps equal 276753
variable        eeng equal time*2e-07
variable        etrue equal ln(1+v_eeng)

variable thermo_freq equal $(round(v_steps/2000))
variable thermo_freq equal 554
variable dump_freq equal $(round(v_steps/30))
variable dump_freq equal 36900

##############################
########### Strains ##########
##############################

variable	tmp equal lx
variable	lx0 equal 31.7463800254684
variable    tmp equal ly
variable    ly0 equal 36.8773134276488
variable    tmp equal lz
variable    lz0 equal 26.6760199207631

variable	eengx equal (lx-31.7463800254684)/31.7463800254684
variable	eengy equal (ly-36.8773134276488)/36.8773134276488
variable	eengz equal (lz-26.6760199207631)/26.6760199207631
variable    etruex equal ln(1+v_eengx)
variable    etruey equal ln(1+v_eengy)
variable    etruez equal ln(1+v_eengz)

##############################
########## Stresses ##########
##############################

compute         p all pressure thermo_temp
variable        sxx equal -0.101325*c_p[1] #in MPa
variable        syy equal -0.101325*c_p[2] #in MPa
variable        szz equal -0.101325*c_p[3] #in MPa
fix             sxx_ave all ave/time 1 554 554 v_sxx
fix             syy_ave all ave/time 1 554 554 v_syy
fix             szz_ave all ave/time 1 554 554 v_szz

##############################
### Thermo & Dump Settings ###
##############################

thermo 554
thermo_style custom step temp press etotal ke pe epair ebond eangle edihed eimp elong lx ly lz pxx pyy pzz v_etrue v_eengx v_eengy v_eengz v_etruex v_etruey v_etruez v_sxx v_syy v_szz f_sxx_ave f_syy_ave f_szz_ave vol density v_dir
dump 1 all custom/gz 36900 PA6_10052023_IFFREq_180S1_YM2.lammpstrj.gz x y z type id

####################
### Run Settings ###
####################
neigh_modify    delay 0 every 1 check yes one 2500 page 100000
fix          1 all npt temp 300 300 100 x 1 1 1000 z 1 1 1000
fix          2 all deform 1 y erate 2e-07
# Breaking up the runs resets the pppm grid points which increases accuracy when box size changes
# Please note that the start and stop keywords are necessary so that the fix deform command deforms the box correctly over several runs
run		276753 start 0 stop $(v_quarter_steps*4)
run		276753 start 0 stop 1107012
PPPM initialization ...
  G vector (1/distance) = 0.3127109
  grid = 30 36 27
  stencil order = 5
  estimated absolute RMS force accuracy = 0.00035597495
  estimated relative force accuracy = 1.072008e-06
  3d grid and FFT values/proc = 31450 15120
Generated 66 of 66 mixed pair_coeff terms from sixthpower/sixthpower mixing rule
Last active /omp style is kspace_style pppm/omp
Step          Temp          Press          TotEng         KinEng         PotEng         E_pair         E_bond        E_angle        E_dihed        E_impro         E_long           Lx             Ly             Lz            Pxx            Pyy            Pzz          v_etrue        v_eengx        v_eengy        v_eengz        v_etruex       v_etruey       v_etruez        v_sxx          v_syy          v_szz        f_sxx_ave      f_syy_ave      f_szz_ave        Volume        Density         v_dir
0   302.5043       1506.71       -6545.4897      3118.1058     -9663.5955     -9268.3603      1366.2721      1134.4964     -2931.2948      35.291087     -13037.517      31.74638       36.877313      26.67602       2923.0084      1193.4069      403.71484      0             -1.2310018e-15  3.8535493e-16  1.3318005e-15 -1.2212453e-15  4.4408921e-16  1.3322676e-15 -296.17382     -120.92196     -40.906407      0              0              0              31230.182      1.0954878      2
Averages over the last 251 of 501 rows, steps 138500 to 276753:
Temp Press TotEng KinEng PotEng E_pair E_bond E_angle E_dihed E_impro E_long Lx Ly Lz Pxx Pyy Pzz v_etrue v_eengx v_eengy v_eengz v_etruex v_etruey v_etruez v_sxx v_syy v_szz f_sxx_ave f_syy_ave f_szz_ave Volume Density v_dir
299.872 -343.597 -6540.25 3090.97 -9631.23 -9250.1 1341.51 1151.12 -2926.85 53.0859 -13032.4 31.2567 38.4096 26.2237 -199.752 -783.617 -47.4228 0.0406801 -0.0154261 0.0415498 -0.0169549 -0.0155906 0.0406801 -0.0171308 20.2398 79.4 4.80512 0.0133977 79.8184 0.0752809 31480.5 1.08683 2
Loop time of 3603.03 on 4 procs for 276753 steps with 3459 atoms

run		276753 start 0 stop $(v_quarter_steps*4)
run		276753 start 0 stop 1107012
PPPM initialization ...
  G vector (1/distance) = 0.31270574
  grid = 30 36 27
  stencil order = 5
  estimated absolute RMS force accuracy = 0.00035357311
  estimated relative force accuracy = 1.0647749e-06
  3d grid and FFT values/proc = 31450 15120
Generated 66 of 66 mixed pair_coeff terms from sixthpower/sixthpower mixing rule
Last active /omp style is kspace_style pppm/omp
Step          Temp          Press          TotEng         KinEng         PotEng         E_pair         E_bond        E_angle        E_dihed        E_impro         E_long           Lx             Ly             Lz            Pxx            Pyy            Pzz          v_etrue        v_eengx        v_eengy        v_eengz        v_etruex       v_etruey       v_etruez        v_sxx          v_syy          v_szz        f_sxx_ave      f_syy_ave      f_szz_ave        Volume        Density         v_dir
276753   306.41976     -383.85349     -6467.168       3158.465      -9625.6329     -9233.6509      1400.7105      1133.2956     -2977.7303      51.742224     -13033.23       30.934728      38.918495      26.264519     -1348.7443     -317.6955       514.87938      0.053873034   -0.025566744    0.0553506     -0.015425875   -0.025899253    0.053873034   -0.015546091    136.66152      32.190497     -52.170153      7.9955028      114.08415     -1.8112011      31620.723      1.0819576      2
Averages over the last 251 of 502 rows, steps 415500 to 553506:
Temp Press TotEng KinEng PotEng E_pair E_bond E_angle E_dihed E_impro E_long Lx Ly Lz Pxx Pyy Pzz v_etrue v_eengx v_eengy v_eengz v_etruex v_etruey v_etruez v_sxx v_syy v_szz f_sxx_ave f_syy_ave f_szz_ave Volume Density v_dir
299.914 -446.369 -6504.01 3091.41 -9595.42 -9211.26 1338.57 1156.88 -2929.95 50.3412 -13028.1 30.9636 40.4526 25.5532 15.3505 -1316.21 -38.2512 0.0925065 -0.0246561 0.0969496 -0.0420895 -0.0249909 0.0925065 -0.0430264 -1.55539 133.365 3.8758 0.484243 137.526 -0.555951 32005.3 1.06901 2
Loop time of 3597.5 on 4 procs for 276753 steps with 3459 atoms

run		276753 start 0 stop $(v_quarter_steps*4)
run		276753 start 0 stop 1107012
PPPM initialization ...
  G vector (1/distance) = 0.31195551
  grid = 30 36 27
  stencil order = 5
  estimated absolute RMS force accuracy = 0.0003678307
  estimated relative force accuracy = 1.1077112e-06
  3d grid and FFT values/proc = 31450 15120
Generated 66 of 66 mixed pair_coeff terms from sixthpower/sixthpower mixing rule
Last active /omp style is kspace_style pppm/omp
Step          Temp          Press          TotEng         KinEng         PotEng         E_pair         E_bond        E_angle        E_dihed        E_impro         E_long           Lx             Ly             Lz            Pxx            Pyy            Pzz          v_etrue        v_eengx        v_eengy        v_eengz        v_etruex       v_etruey       v_etruez        v_sxx          v_syy          v_szz        f_sxx_ave      f_syy_ave      f_szz_ave        Volume        Density         v_dir
553506   311.48874     -2973.7738     -6341.9013      3210.7141     -9552.6154     -9209.0878      1334.5046      1203.5259     -2929.2428      47.684691     -12992.182      30.848595      40.959676      25.64272      -2237.8697     -3489.5079     -3193.9439      0.10499153    -0.028279904    0.1107012     -0.038735142   -0.028687483    0.10499153    -0.039505302    226.75214      353.57439      323.62637      38.614917      169.58815      15.516936      32400.821      1.0559079      2
Averages over the last 251 of 501 rows, steps 691946 to 830259:
Temp Press TotEng KinEng PotEng E_pair E_bond E_angle E_dihed E_impro E_long Lx Ly Lz Pxx Pyy Pzz v_etrue v_eengx v_eengy v_eengz v_etruex v_etruey v_etruez v_sxx v_syy v_szz f_sxx_ave f_syy_ave f_szz_ave Volume Density v_dir
300.255 -300.475 -6462.07 3094.92 -9556.99 -9193.96 1343.97 1163.22 -2920.56 50.3454 -12993.9 30.1118 42.4915 25.218 94.4709 -962.331 -33.5647 0.141683 -0.0514892 0.152239 -0.0546554 -0.0529224 0.141683 -0.0562456 -9.57226 97.5082 3.40094 0.230273 123.628 -0.390901 32263.4 1.06048 2
Loop time of 3577.59 on 4 procs for 276753 steps with 3459 atoms

run		276753 start 0 stop $(v_quarter_steps*4)
run		276753 start 0 stop 1107012
PPPM initialization ...
  G vector (1/distance) = 0.31532212
  grid = 30 40 27
  stencil order = 5
  estimated absolute RMS force accuracy = 0.00030368789
  estimated relative force accuracy = 9.1454707e-07
  3d grid and FFT values/proc = 33966 16800
Generated 66 of 66 mixed pair_coeff terms from sixthpower/sixthpower mixing rule
Last active /omp style is kspace_style pppm/omp
Step          Temp          Press          TotEng         KinEng         PotEng         E_pair         E_bond        E_angle        E_dihed        E_impro         E_long           Lx             Ly             Lz            Pxx            Pyy            Pzz          v_etrue        v_eengx        v_eengy        v_eengz        v_etruex       v_etruey       v_etruez        v_sxx          v_syy          v_szz        f_sxx_ave      f_syy_ave      f_szz_ave        Volume        Density         v_dir
830259   306.42462      1501.9324     -6296.6038      3158.515      -9455.1188     -9202.3602      1419.0403      1162.5743     -2896.4185      62.045243     -13135.33       29.868478      43.000858      24.880525      94.156493      2484.2342      1927.4065      0.15362351    -0.059153263    0.1660518     -0.067307444   -0.060975025    0.15362351    -0.069679654   -9.5404067     -251.71503     -195.29446     -11.7563        98.246809     -7.5602124      31955.805      1.0706125      2
Averages over the last 251 of 502 rows, steps 968946 to 1107012:
Temp Press TotEng KinEng PotEng E_pair E_bond E_angle E_dihed E_impro E_long Lx Ly Lz Pxx Pyy Pzz v_etrue v_eengx v_eengy v_eengz v_etruex v_etruey v_etruez v_sxx v_syy v_szz f_sxx_ave f_syy_ave f_szz_ave Volume Density v_dir
300.331 -355.469 -6454.87 3095.7 -9550.57 -9169.68 1341.53 1152.58 -2924.28 49.2767 -13131.8 29.572 44.5345 24.7693 3.93077 -1284.59 214.252 0.188645 -0.0684924 0.207639 -0.0714769 -0.0709849 0.188645 -0.0742004 -0.398285 130.161 -21.7091 0.30205 135.266 -0.392374 32618.3 1.04893 2
Loop time of 3725.07 on 4 procs for 276753 steps with 3459 atoms

write_data PA6_10052023_IFFREq_180S1_YM2.dat
System init for write_data ...
PPPM initialization ...
  G vector (1/distance) = 0.31261391
  grid = 30 40 25
  stencil order = 5
  estimated absolute RMS force accuracy = 0.00035050573
  estimated relative force accuracy = 1.0555376e-06
  3d grid and FFT values/proc = 31968 15600
Generated 66 of 66 mixed pair_coeff terms from sixthpower/sixthpower mixing rule
Last active /omp style is kspace_style pppm/omp
