timestep 1 # 1 fs
variable strain equal 0.2214028
variable strain_rate_s equal 200000000.0
variable dir equal 3
# dir 1 means x
# dir 2 means y
# dir 3 means z
##############################
### Force Field Parameters ###
##############################
# Insert your force field parameters here
atom_style	full
bond_style hybrid class2 morse
angle_style class2
dihedral_style class2
improper_style class2
special_bonds lj/coul 0 0 1
pair_style lj/class2/coul/long 10.0
pair_modify mix sixthpower
kspace_style pppm 1e-6
read_data       PA6_10052023_IFFREq_180S1.dat.gz
Reading data file ...
  orthogonal box = (-15.87319 -18.438657 -13.33801) to (15.87319 18.438657 13.33801)
  reading atoms ...
  3459 atoms
  reading velocities ...
  3459 velocities
  scanning bonds ...
  scanning angles ...
  scanning dihedrals ...
  scanning impropers ...
  reading bonds ...
  3446 bonds
  reading angles ...
  6493 angles
  reading dihedrals ...
  9334 dihedrals
  reading impropers ...
  3960 impropers
Finding 1-2 1-3 1-4 neighbors ...
     4 = max # of 1-2 neighbors
     6 = max # of 1-3 neighbors
    10 = max # of special neighbors

# Include IFF-R bond coefficients for PA6 example
include PA6_IFFR.coeff
# IFF-R bond coefficients for Nylon 6
bond_coeff 1 class2 0.965 532.506 -1282.9 2004.77
bond_coeff 2 class2 1.34 400 0 0
bond_coeff 3 morse 82.696 1.941 1.514
bond_coeff 4 class2 1.216 823.795 -1878.79 2303.53
bond_coeff 5 class2 1.101 345 -691.89 844.6
bond_coeff 6 morse 82.696 1.914 1.53
bond_coeff 7 morse 72.897 2.25 1.457
bond_coeff 8 class2 1.006 466.74 -1073.6 1251.11
bond_coeff 9 morse 72.897 2.12 1.452
bond_coeff 10 morse 72.897 2.22 1.416
bond_coeff 11 class2 0.97 563.28 -1428.22 1902.12
bond_coeff 12 class2 1.01 462.75 -1053.63 1545.76
bond_coeff 13 class2 1.3649 368.731 -832.478 1274.02
bond_coeff 14 class2 1.202 851.14 -1918.49 2160.77
bond_coeff 15 morse 82.696 1.74 1.5202

variable        strain_rate_fs equal 200000000*1e-15
variable        totaltime equal 0.2214028/2e-07
variable        steps equal $(round(v_totaltime/dt))
variable        steps equal 1107014
variable        quarter_steps equal $(floor(v_steps/4))
variable        quarter_steps equal 276753
variable        eeng equal time*2e-07
variable        etrue equal ln(1+v_eeng)

variable thermo_freq equal $(round(v_steps/2000))
variable thermo_freq equal 554
variable dump_freq equal $(round(v_steps/30))
variable dump_freq equal 36900

##############################
########### Strains ##########
##############################

variable	tmp equal lx
variable	lx0 equal 31.7463800254684
variable    tmp equal ly
variable    ly0 equal 36.8773134276488
variable    tmp equal lz
variable    lz0 equal 26.6760199207631

variable	eengx equal (lx-31.7463800254684)/31.7463800254684
variable	eengy equal (ly-36.8773134276488)/36.8773134276488
variable	eengz equal (lz-26.6760199207631)/26.6760199207631
variable    etruex equal ln(1+v_eengx)
variable    etruey equal ln(1+v_eengy)
variable    etruez equal ln(1+v_eengz)

##############################
########## Stresses ##########
##############################

compute         p all pressure thermo_temp
variable        sxx equal -0.101325*c_p[1] #in MPa
variable        syy equal -0.101325*c_p[2] #in MPa
variable        szz equal -0.101325*c_p[3] #in MPa
fix             sxx_ave all ave/time 1 554 554 v_sxx
fix             syy_ave all ave/time 1 554 554 v_syy
fix             szz_ave all ave/time 1 554 554 v_szz

##############################
### Thermo & Dump Settings ###
##############################

thermo 554
thermo_style custom step temp press etotal ke pe epair ebond eangle edihed eimp elong lx ly lz pxx pyy pzz v_etrue v_eengx v_eengy v_eengz v_etruex v_etruey v_etruez v_sxx v_syy v_szz f_sxx_ave f_syy_ave f_szz_ave vol density v_dir
dump 1 all custom/gz 36900 PA6_10052023_IFFREq_180S1_YM3.lammpstrj.gz x y z type id

####################
### Run Settings ###
####################
neigh_modify    delay 0 every 1 check yes one 2500 page 100000
fix          1 all npt temp 300 300 100 x 1 1 1000 y 1 1 1000
fix          2 all deform 1 z erate 2e-07
# Breaking up the runs resets the pppm grid points which increases accuracy when box size changes
# Please note that the start and stop keywords are necessary so that the fix deform command deforms the box correctly over several runs
run		276753 start 0 stop $(v_quarter_steps*4)
run		276753 start 0 stop 1107012
PPPM initialization ...
  G vector (1/distance) = 0.3127109
  grid = 30 36 27
  stencil order = 5
  estimated absolute RMS force accuracy = 0.00035597495
  estimated relative force accuracy = 1.072008e-06
  3d grid and FFT values/proc = 31450 15120
Generated 66 of 66 mixed pair_coeff terms from sixthpower/sixthpower mixing rule
Last active /omp style is kspace_style pppm/omp
Step          Temp          Press          TotEng         KinEng         PotEng         E_pair         E_bond        E_angle        E_dihed        E_impro         E_long           Lx             Ly             Lz            Pxx            Pyy            Pzz          v_etrue        v_eengx        v_eengy        v_eengz        v_etruex       v_etruey       v_etruez        v_sxx          v_syy          v_szz        f_sxx_ave      f_syy_ave      f_szz_ave        Volume        Density         v_dir
0   302.5043       1506.71       -6545.4897      3118.1058     -9663.5955     -9268.3603      1366.2721      1134.4964     -2931.2948      35.291087     -13037.517      31.74638       36.877313      26.67602       2923.0084      1193.4069      403.71484      0             -1.2310018e-15  3.8535493e-16  1.3318005e-15 -1.2212453e-15  4.4408921e-16  1.3322676e-15 -296.17382     -120.92196     -40.906407      0              0              0              31230.182      1.0954878      3
Averages over the last 251 of 501 rows, steps 138500 to 276753:
Temp Press TotEng KinEng PotEng E_pair E_bond E_angle E_dihed E_impro E_long Lx Ly Lz Pxx Pyy Pzz v_etrue v_eengx v_eengy v_eengz v_etruex v_etruey v_etruez v_sxx v_syy v_szz f_sxx_ave f_syy_ave f_szz_ave Volume Density v_dir
299.875 -263.443 -6519.49 3091 -9610.49 -9230.55 1337.6 1155.96 -2926.49 52.9952 -13030.7 31.5438 36.2191 27.7844 -26.5471 48.064 -811.845 0.0406801 -0.00638209 -0.0178499 0.0415498 -0.00642425 -0.0180371 0.0406801 2.68988 -4.87008 82.2602 0.112228 -0.178679 79.9361 31741.6 1.07789 3
Loop time of 3595.6 on 4 procs for 276753 steps with 3459 atoms

run		276753 start 0 stop $(v_quarter_steps*4)
run		276753 start 0 stop 1107012
PPPM initialization ...
  G vector (1/distance) = 0.31466168
  grid = 30 36 30
  stencil order = 5
  estimated absolute RMS force accuracy = 0.00031673751
  estimated relative force accuracy = 9.5384562e-07
  3d grid and FFT values/proc = 34225 16200
Generated 66 of 66 mixed pair_coeff terms from sixthpower/sixthpower mixing rule
Last active /omp style is kspace_style pppm/omp
Step          Temp          Press          TotEng         KinEng         PotEng         E_pair         E_bond        E_angle        E_dihed        E_impro         E_long           Lx             Ly             Lz            Pxx            Pyy            Pzz          v_etrue        v_eengx        v_eengy        v_eengz        v_etruex       v_etruey       v_etruez        v_sxx          v_syy          v_szz        f_sxx_ave      f_syy_ave      f_szz_ave        Volume        Density         v_dir
276753   297.98245     -211.13759     -6512.4728      3071.4961     -9583.969      -9197.1625      1372.0632      1114.4593     -2918.0583      44.729316     -13104.161      31.601338      35.905479      28.152554     -3078.9583      1610.6283      834.9172       0.053873034   -0.0045687624  -0.02635318     0.0553506     -0.0045792311  -0.026706649    0.053873034    311.97545     -163.19692     -84.597985      13.606704     -2.6690439      52.520336      31943.61       1.0710212      3
Averages over the last 251 of 502 rows, steps 415500 to 553506:
Temp Press TotEng KinEng PotEng E_pair E_bond E_angle E_dihed E_impro E_long Lx Ly Lz Pxx Pyy Pzz v_etrue v_eengx v_eengy v_eengz v_etruex v_etruey v_etruez v_sxx v_syy v_szz f_sxx_ave f_syy_ave f_szz_ave Volume Density v_dir
300.768 -422.481 -6477.29 3100.21 -9577.5 -9219.17 1341.8 1169.31 -2923.54 54.1066 -13110.9 30.5777 35.862 29.2622 -92.1185 -145.43 -1029.89 0.0925065 -0.0368118 -0.027531 0.0969496 -0.0375421 -0.0279777 0.0925065 9.33391 14.7357 104.354 0.260914 -0.312146 94.6085 32085.2 1.06635 3
Loop time of 3709.69 on 4 procs for 276753 steps with 3459 atoms

run		276753 start 0 stop $(v_quarter_steps*4)
run		276753 start 0 stop 1107012
PPPM initialization ...
  G vector (1/distance) = 0.31522863
  grid = 30 36 30
  stencil order = 5
  estimated absolute RMS force accuracy = 0.00030604983
  estimated relative force accuracy = 9.2165996e-07
  3d grid and FFT values/proc = 34225 16200
Generated 66 of 66 mixed pair_coeff terms from sixthpower/sixthpower mixing rule
Last active /omp style is kspace_style pppm/omp
Step          Temp          Press          TotEng         KinEng         PotEng         E_pair         E_bond        E_angle        E_dihed        E_impro         E_long           Lx             Ly             Lz            Pxx            Pyy            Pzz          v_etrue        v_eengx        v_eengy        v_eengz        v_etruex       v_etruey       v_etruez        v_sxx          v_syy          v_szz        f_sxx_ave      f_syy_ave      f_szz_ave        Volume        Density         v_dir
553506   300.00684     -460.78394     -6543.2059      3092.3629     -9635.5687     -9239.4961      1328.664       1144.7452     -2946.8171      77.335391     -13129.805      30.253723      35.521617      29.629087     -391.55357     -115.6554      -875.14285      0.10499153    -0.047018166   -0.036762336    0.1107012     -0.048159437   -0.037455102    0.10499153     39.674165      11.718783      88.673849     -26.219847     -20.03742       82.162496      31841.23       1.0744649      3
Averages over the last 251 of 501 rows, steps 691946 to 830259:
Temp Press TotEng KinEng PotEng E_pair E_bond E_angle E_dihed E_impro E_long Lx Ly Lz Pxx Pyy Pzz v_etrue v_eengx v_eengy v_eengz v_etruex v_etruey v_etruez v_sxx v_syy v_szz f_sxx_ave f_syy_ave f_szz_ave Volume Density v_dir
300.297 -274.126 -6490.37 3095.35 -9585.72 -9231.62 1343.27 1167.82 -2921.11 55.9219 -13131.8 29.7688 34.9218 30.7372 61.4566 44.039 -927.872 0.141683 -0.0622923 -0.0530277 0.152239 -0.0643389 -0.0545218 0.141683 -6.22709 -4.46225 94.0167 -0.0895821 -0.341602 95.6006 31952.3 1.07081 3
Loop time of 3909.8 on 4 procs for 276753 steps with 3459 atoms

run		276753 start 0 stop $(v_quarter_steps*4)
run		276753 start 0 stop 1107012
PPPM initialization ...
  G vector (1/distance) = 0.31190438
  grid = 30 32 30
  stencil order = 5
  estimated absolute RMS force accuracy = 0.00036970585
  estimated relative force accuracy = 1.1133582e-06
  3d grid and FFT values/proc = 31487 14400
Generated 66 of 66 mixed pair_coeff terms from sixthpower/sixthpower mixing rule
Last active /omp style is kspace_style pppm/omp
Step          Temp          Press          TotEng         KinEng         PotEng         E_pair         E_bond        E_angle        E_dihed        E_impro         E_long           Lx             Ly             Lz            Pxx            Pyy            Pzz          v_etrue        v_eengx        v_eengy        v_eengz        v_etruex       v_etruey       v_etruez        v_sxx          v_syy          v_szz        f_sxx_ave      f_syy_ave      f_szz_ave        Volume        Density         v_dir
830259   299.95396     -332.02984     -6475.3705      3091.8178     -9567.1883     -9194.5187      1292.141       1186.5449     -2915.8352      64.479695     -12993.893      29.94032       34.697528      31.105621     -379.59615      807.94621     -1424.4396      0.15362351    -0.056890257   -0.059109124    0.1660518     -0.058572626   -0.060928112    0.15362351     38.46258      -81.86515       144.33134      31.170202     -18.661866      119.16321      32314.233      1.0587373      3
Averages over the last 251 of 502 rows, steps 968946 to 1107012:
Temp Press TotEng KinEng PotEng E_pair E_bond E_angle E_dihed E_impro E_long Lx Ly Lz Pxx Pyy Pzz v_etrue v_eengx v_eengy v_eengz v_etruex v_etruey v_etruez v_sxx v_syy v_szz f_sxx_ave f_syy_ave f_szz_ave Volume Density v_dir
299.623 -276.316 -6503.66 3088.41 -9592.07 -9213.59 1337.78 1155.47 -2923.5 51.7645 -12996.5 29.2956 34.0596 32.215 75.9681 -6.29368 -898.623 0.188645 -0.0771981 -0.0764073 0.207639 -0.0803751 -0.0795097 0.188645 -7.69747 0.637707 91.053 0.2767 0.273514 91.4231 32142.2 1.06446 3
Loop time of 3593.72 on 4 procs for 276753 steps with 3459 atoms

write_data PA6_10052023_IFFREq_180S1_YM3.dat
System init for write_data ...
PPPM initialization ...
  G vector (1/distance) = 0.31407966
  grid = 30 32 32
  stencil order = 5
  estimated absolute RMS force accuracy = 0.00032908446
  estimated relative force accuracy = 9.9102807e-07
  3d grid and FFT values/proc = 33189 15360
Generated 66 of 66 mixed pair_coeff terms from sixthpower/sixthpower mixing rule
Last active /omp style is kspace_style pppm/omp
