timestep 1 # 1 fs
variable strain equal 0.2214028
variable strain_rate_s equal 200000000.0
variable dir equal 1
# dir 1 means x
# dir 2 means y
# dir 3 means z
##############################
### Force Field Parameters ###
##############################
# Insert your force field parameters here
atom_style	full
bond_style hybrid class2 morse
angle_style class2
dihedral_style class2
improper_style class2
special_bonds lj/coul 0 0 1
pair_style lj/class2/coul/long 10.0
pair_modify mix sixthpower
kspace_style pppm 1e-6
read_data       PA6_10052023_IFFREq_180S1.dat.gz
Reading data file ...
  orthogonal box = (-15.87319 -18.438657 -13.33801) to (15.87319 18.438657 13.33801)
  reading atoms ...
  3459 atoms
  reading velocities ...
  3459 velocities
  scanning bonds ...
  scanning angles ...
  scanning dihedrals ...
  scanning impropers ...
  reading bonds ...
  3446 bonds
  reading angles ...
  6493 angles
  reading dihedrals ...
  9334 dihedrals
  reading impropers ...
  3960 impropers
Finding 1-2 1-3 1-4 neighbors ...
     4 = max # of 1-2 neighbors
     6 = max # of 1-3 neighbors
    10 = max # of special neighbors

# Include IFF-R bond coefficients for PA6 example
include PA6_IFFR.coeff
# IFF-R bond coefficients for Nylon 6
bond_coeff 1 class2 0.965 532.506 -1282.9 2004.77
bond_coeff 2 class2 1.34 400 0 0
bond_coeff 3 morse 82.696 1.941 1.514
bond_coeff 4 class2 1.216 823.795 -1878.79 2303.53
bond_coeff 5 class2 1.101 345 -691.89 844.6
bond_coeff 6 morse 82.696 1.914 1.53
bond_coeff 7 morse 72.897 2.25 1.457
bond_coeff 8 class2 1.006 466.74 -1073.6 1251.11
bond_coeff 9 morse 72.897 2.12 1.452
bond_coeff 10 morse 72.897 2.22 1.416
bond_coeff 11 class2 0.97 563.28 -1428.22 1902.12
bond_coeff 12 class2 1.01 462.75 -1053.63 1545.76
bond_coeff 13 class2 1.3649 368.731 -832.478 1274.02
bond_coeff 14 class2 1.202 851.14 -1918.49 2160.77
bond_coeff 15 morse 82.696 1.74 1.5202

variable        strain_rate_fs equal 200000000*1e-15
variable        totaltime equal 0.2214028/2e-07
variable        steps equal $(round(v_totaltime/dt))
variable        steps equal 1107014
variable        quarter_steps equal $(floor(v_steps/4))
variable        quarter_steps equal 276753
variable        eeng equal time*2e-07
variable        etrue equal ln(1+v_eeng)

variable thermo_freq equal $(round(v_steps/2000))
variable thermo_freq equal 554
variable dump_freq equal $(round(v_steps/30))
variable dump_freq equal 36900

##############################
########### Strains ##########
##############################

variable	tmp equal lx
variable	lx0 equal 31.7463800254684
variable    tmp equal ly
variable    ly0 equal 36.8773134276488
variable    tmp equal lz
variable    lz0 equal 26.6760199207631

variable	eengx equal (lx-31.7463800254684)/31.7463800254684
variable	eengy equal (ly-36.8773134276488)/36.8773134276488
variable	eengz equal (lz-26.6760199207631)/26.6760199207631
variable    etruex equal ln(1+v_eengx)
variable    etruey equal ln(1+v_eengy)
variable    etruez equal ln(1+v_eengz)

##############################
########## Stresses ##########
##############################

compute         p all pressure thermo_temp
variable        sxx equal -0.101325*c_p[1] #in MPa
variable        syy equal -0.101325*c_p[2] #in MPa
variable        szz equal -0.101325*c_p[3] #in MPa
fix             sxx_ave all ave/time 1 554 554 v_sxx
fix             syy_ave all ave/time 1 554 554 v_syy
fix             szz_ave all ave/time 1 554 554 v_szz

##############################
### Thermo & Dump Settings ###
##############################

thermo 554
thermo_style custom step temp press etotal ke pe epair ebond eangle edihed eimp elong lx ly lz pxx pyy pzz v_etrue v_eengx v_eengy v_eengz v_etruex v_etruey v_etruez v_sxx v_syy v_szz f_sxx_ave f_syy_ave f_szz_ave vol density v_dir
dump 1 all custom/gz 36900 PA6_10052023_IFFREq_180S1_YM1.lammpstrj.gz x y z type id

####################
### Run Settings ###
####################
neigh_modify    delay 0 every 1 check yes one 2500 page 100000
fix          1 all npt temp 300 300 100 y 1 1 1000 z 1 1 1000
fix          2 all deform 1 x erate 2e-07
# Breaking up the runs resets the pppm grid points which increases accuracy when box size changes
# Please note that the start and stop keywords are necessary so that the fix deform command deforms the box correctly over several runs
run		276753 start 0 stop $(v_quarter_steps*4)
run		276753 start 0 stop 1107012
PPPM initialization ...
  G vector (1/distance) = 0.3127109
  grid = 30 36 27
  stencil order = 5
  estimated absolute RMS force accuracy = 0.00035597495
  estimated relative force accuracy = 1.072008e-06
  3d grid and FFT values/proc = 31450 15120
Generated 66 of 66 mixed pair_coeff terms from sixthpower/sixthpower mixing rule
Last active /omp style is kspace_style pppm/omp
Step          Temp          Press          TotEng         KinEng         PotEng         E_pair         E_bond        E_angle        E_dihed        E_impro         E_long           Lx             Ly             Lz            Pxx            Pyy            Pzz          v_etrue        v_eengx        v_eengy        v_eengz        v_etruex       v_etruey       v_etruez        v_sxx          v_syy          v_szz        f_sxx_ave      f_syy_ave      f_szz_ave        Volume        Density         v_dir
0   302.5043       1506.71       -6545.4897      3118.1058     -9663.5955     -9268.3603      1366.2721      1134.4964     -2931.2948      35.291087     -13037.517      31.74638       36.877313      26.67602       2923.0084      1193.4069      403.71484      0             -1.2310018e-15  3.8535493e-16  1.3318005e-15 -1.2212453e-15  4.4408921e-16  1.3322676e-15 -296.17382     -120.92196     -40.906407      0              0              0              31230.182      1.0954878      1
Averages over the last 251 of 501 rows, steps 138500 to 276753:
Temp Press TotEng KinEng PotEng E_pair E_bond E_angle E_dihed E_impro E_long Lx Ly Lz Pxx Pyy Pzz v_etrue v_eengx v_eengy v_eengz v_etruex v_etruey v_etruez v_sxx v_syy v_szz f_sxx_ave f_syy_ave f_szz_ave Volume Density v_dir
300.121 -135.173 -6496.13 3093.54 -9589.67 -9235.72 1340.53 1165.65 -2911.61 51.4755 -13031.4 33.0654 36.4572 26.3364 -583.07 121.798 55.7527 0.0406801 0.0415498 -0.0113917 -0.0127306 0.0406801 -0.0114898 -0.012842 59.0796 -12.3412 -5.64914 66.4815 -0.450832 0.184682 31745.8 1.07775 1
Loop time of 3628.82 on 4 procs for 276753 steps with 3459 atoms

run		276753 start 0 stop $(v_quarter_steps*4)
run		276753 start 0 stop 1107012
PPPM initialization ...
  G vector (1/distance) = 0.31411652
  grid = 32 36 27
  stencil order = 5
  estimated absolute RMS force accuracy = 0.00032717126
  estimated relative force accuracy = 9.8526655e-07
  3d grid and FFT values/proc = 33150 16128
Generated 66 of 66 mixed pair_coeff terms from sixthpower/sixthpower mixing rule
Last active /omp style is kspace_style pppm/omp
Step          Temp          Press          TotEng         KinEng         PotEng         E_pair         E_bond        E_angle        E_dihed        E_impro         E_long           Lx             Ly             Lz            Pxx            Pyy            Pzz          v_etrue        v_eengx        v_eengy        v_eengz        v_etruex       v_etruey       v_etruez        v_sxx          v_syy          v_szz        f_sxx_ave      f_syy_ave      f_szz_ave        Volume        Density         v_dir
276753   300.88275     -482.11355     -6464.1143      3101.3914     -9565.5057     -9214.8805      1345.6108      1170.8547     -2907.4917      40.40099      -13085.764      33.503561      36.302008      26.370647     -601.6407      -1053.3511      208.65118      0.053873034    0.0553506     -0.015600524   -0.011447477    0.053873034   -0.015723492   -0.011513503    60.961244      106.7308      -21.141581      76.722344     -3.5804357     -14.759248      32073.208      1.0666935      1
Averages over the last 251 of 502 rows, steps 415500 to 553506:
Temp Press TotEng KinEng PotEng E_pair E_bond E_angle E_dihed E_impro E_long Lx Ly Lz Pxx Pyy Pzz v_etrue v_eengx v_eengy v_eengz v_etruex v_etruey v_etruez v_sxx v_syy v_szz f_sxx_ave f_syy_ave f_szz_ave Volume Density v_dir
299.654 -298.258 -6498.01 3088.72 -9586.73 -9227.39 1342.9 1160.76 -2913.59 50.5853 -13086.7 34.8242 35.6199 25.6385 -986.641 -20.7508 112.618 0.0925065 0.0969496 -0.0340974 -0.0388938 0.0925065 -0.0347227 -0.0396972 99.9714 2.10258 -11.411 92.2175 0.149335 0.0565648 31800.9 1.07588 1
Loop time of 3766.32 on 4 procs for 276753 steps with 3459 atoms

run		276753 start 0 stop $(v_quarter_steps*4)
run		276753 start 0 stop 1107012
PPPM initialization ...
  G vector (1/distance) = 0.31715572
  grid = 36 36 27
  stencil order = 5
  estimated absolute RMS force accuracy = 0.00027063568
  estimated relative force accuracy = 8.1501132e-07
  3d grid and FFT values/proc = 36550 18144
Generated 66 of 66 mixed pair_coeff terms from sixthpower/sixthpower mixing rule
Last active /omp style is kspace_style pppm/omp
Step          Temp          Press          TotEng         KinEng         PotEng         E_pair         E_bond        E_angle        E_dihed        E_impro         E_long           Lx             Ly             Lz            Pxx            Pyy            Pzz          v_etrue        v_eengx        v_eengy        v_eengz        v_etruex       v_etruey       v_etruez        v_sxx          v_syy          v_szz        f_sxx_ave      f_syy_ave      f_szz_ave        Volume        Density         v_dir
553506   300.03119     -1687.2052     -6444.1854      3092.6138     -9536.7992     -9258.3669      1329.7628      1232.5014     -2874.2383      33.54183      -13209.191      35.260742      35.645123      25.321256     -1241.8103     -2303.9068     -1515.8985      0.10499153     0.1107012     -0.033413241   -0.050785815    0.10499153    -0.033984218   -0.052120811    125.82643      233.44336      153.59841      65.969414     -27.86273       27.21898       31825.616      1.074992       1
Averages over the last 251 of 501 rows, steps 691946 to 830259:
Temp Press TotEng KinEng PotEng E_pair E_bond E_angle E_dihed E_impro E_long Lx Ly Lz Pxx Pyy Pzz v_etrue v_eengx v_eengy v_eengz v_etruex v_etruey v_etruez v_sxx v_syy v_szz f_sxx_ave f_syy_ave f_szz_ave Volume Density v_dir
299.239 -362.279 -6501.74 3084.44 -9586.18 -9212.85 1341.33 1158.13 -2924.37 51.5745 -13212.7 36.5794 34.6837 25.3231 -1053.49 -27.0053 -6.3457 0.141683 0.152239 -0.0594843 -0.0507165 0.141683 -0.0613575 -0.0520933 106.744 2.73631 0.642978 95.7149 0.471096 -0.450845 32125.2 1.06502 1
Loop time of 3961.89 on 4 procs for 276753 steps with 3459 atoms

run		276753 start 0 stop $(v_quarter_steps*4)
run		276753 start 0 stop 1107012
PPPM initialization ...
  G vector (1/distance) = 0.31373337
  grid = 36 32 27
  stencil order = 5
  estimated absolute RMS force accuracy = 0.00033476143
  estimated relative force accuracy = 1.0081241e-06
  3d grid and FFT values/proc = 33626 16128
Generated 66 of 66 mixed pair_coeff terms from sixthpower/sixthpower mixing rule
Last active /omp style is kspace_style pppm/omp
Step          Temp          Press          TotEng         KinEng         PotEng         E_pair         E_bond        E_angle        E_dihed        E_impro         E_long           Lx             Ly             Lz            Pxx            Pyy            Pzz          v_etrue        v_eengx        v_eengy        v_eengz        v_etruex       v_etruey       v_etruez        v_sxx          v_syy          v_szz        f_sxx_ave      f_syy_ave      f_szz_ave        Volume        Density         v_dir
830259   300.61247      304.46822     -6510.902       3098.6055     -9609.5074     -9238.9022      1316.626       1165.6661     -2912.8847      59.987295     -13080.139      37.017924      34.763825      24.983582      366.01499     -1886.2801      2433.6698      0.15362351     0.1660518     -0.057311338   -0.063444156    0.15362351    -0.059019207   -0.065546129   -37.086468      191.12733     -246.59159      110.37547      20.845553     -13.200302      32150.988      1.0641129      1
Averages over the last 251 of 502 rows, steps 968946 to 1107012:
Temp Press TotEng KinEng PotEng E_pair E_bond E_angle E_dihed E_impro E_long Lx Ly Lz Pxx Pyy Pzz v_etrue v_eengx v_eengy v_eengz v_etruex v_etruey v_etruez v_sxx v_syy v_szz f_sxx_ave f_syy_ave f_szz_ave Volume Density v_dir
299.885 -521.134 -6480.27 3091.11 -9571.38 -9203.24 1337.07 1169.24 -2926.39 51.9354 -13067 38.3382 34.0815 24.7128 -1371.13 -100.56 -91.7133 0.188645 0.207639 -0.0758128 -0.0735959 0.188645 -0.0788759 -0.0764732 138.93 10.1893 9.29285 136.039 -0.462781 0.359842 32288.4 1.05964 1
Loop time of 3760.7 on 4 procs for 276753 steps with 3459 atoms

write_data PA6_10052023_IFFREq_180S1_YM1.dat
System init for write_data ...
PPPM initialization ...
  G vector (1/distance) = 0.3117965
  grid = 36 32 25
  stencil order = 5
  estimated absolute RMS force accuracy = 0.00037070603
  estimated relative force accuracy = 1.1163702e-06
  3d grid and FFT values/proc = 31648 14976
Generated 66 of 66 mixed pair_coeff terms from sixthpower/sixthpower mixing rule
Last active /omp style is kspace_style pppm/omp
