timestep 1 # 1 fs
variable strain equal 0.2214028
variable strain_rate_s equal 200000000.0
variable dir equal 2
# dir 1 means xy
# dir 2 means xz
# dir 3 means yz
##############################
### Force Field Parameters ###
##############################
atom_style	full
bond_style hybrid class2 morse
angle_style class2
dihedral_style class2
improper_style class2
special_bonds lj/coul 0 0 1
pair_style lj/class2/coul/long 10.0
pair_modify mix sixthpower
kspace_style pppm 1e-6
read_data       PA6_10052023_IFFREq_180S1.dat.gz
Reading data file ...
  orthogonal box = (-15.87319 -18.438657 -13.33801) to (15.87319 18.438657 13.33801)
  reading atoms ...
  3459 atoms
  reading velocities ...
  3459 velocities
  scanning bonds ...
  scanning angles ...
  scanning dihedrals ...
  scanning impropers ...
  reading bonds ...
  3446 bonds
  reading angles ...
  6493 angles
  reading dihedrals ...
  9334 dihedrals
  reading impropers ...
  3960 impropers
Finding 1-2 1-3 1-4 neighbors ...
     4 = max # of 1-2 neighbors
     6 = max # of 1-3 neighbors
    10 = max # of special neighbors
change_box all triclinic remap
Changing box ...
  triclinic box = (-15.87319 -18.438657 -13.33801) to (15.87319 18.438657 13.33801) with tilt (0 0 0)
kspace_style pppm 1e-6 # You MUST redefine kspace after changing the box to triclinic

# Include IFF-R bond coefficients for PA6 example
include PA6_IFFR.coeff
# IFF-R bond coefficients for Nylon 6
bond_coeff 1 class2 0.965 532.506 -1282.9 2004.77
bond_coeff 2 class2 1.34 400 0 0
bond_coeff 3 morse 82.696 1.941 1.514
bond_coeff 4 class2 1.216 823.795 -1878.79 2303.53
bond_coeff 5 class2 1.101 345 -691.89 844.6
bond_coeff 6 morse 82.696 1.914 1.53
bond_coeff 7 morse 72.897 2.25 1.457
bond_coeff 8 class2 1.006 466.74 -1073.6 1251.11
bond_coeff 9 morse 72.897 2.12 1.452
bond_coeff 10 morse 72.897 2.22 1.416
bond_coeff 11 class2 0.97 563.28 -1428.22 1902.12
bond_coeff 12 class2 1.01 462.75 -1053.63 1545.76
bond_coeff 13 class2 1.3649 368.731 -832.478 1274.02
bond_coeff 14 class2 1.202 851.14 -1918.49 2160.77
bond_coeff 15 morse 82.696 1.74 1.5202

variable        strain_rate_fs equal 200000000*1e-15
variable        totaltime equal 0.2214028/2e-07
variable        steps equal $(round(v_totaltime/dt))
variable        steps equal 1107014
variable        quarter_steps equal $(floor(v_steps/4))
variable        quarter_steps equal 276753
variable        eeng equal time*2e-07
variable        etrue equal ln(1+v_eeng)

variable thermo_freq equal $(round(v_steps/2000))
variable thermo_freq equal 554
variable dump_freq equal $(round(v_steps/30))
variable dump_freq equal 36900

##############################
########### Strains ##########
##############################
#cellgamma, cellbeta, and cellalpha refer to the crystallographic angles

variable	eengxy equal (PI/180*(90-cellgamma))
variable	eengxz equal (PI/180*(90-cellbeta))
variable	eengyz equal (PI/180*(90-cellalpha))
variable    etruexy equal ln(1+v_eengxy)
variable    etruexz equal ln(1+v_eengxz)
variable    etrueyz equal ln(1+v_eengyz)

##############################
########## Stresses ##########
##############################

compute         p all pressure thermo_temp
variable        sxx equal -0.101325*c_p[1] #in MPa
variable        syy equal -0.101325*c_p[2] #in MPa
variable        szz equal -0.101325*c_p[3] #in MPa
variable        sxy equal -0.101325*c_p[4] #in MPa
variable        sxz equal -0.101325*c_p[5] #in MPa
variable        syz equal -0.101325*c_p[6] #in MPa
fix             sxx_ave all ave/time 1 554 554 v_sxx
fix             syy_ave all ave/time 1 554 554 v_syy
fix             szz_ave all ave/time 1 554 554 v_szz
fix             sxy_ave all ave/time 1 554 554 v_sxy
fix             sxz_ave all ave/time 1 554 554 v_sxz
fix             syz_ave all ave/time 1 554 554 v_syz

##############################
### Thermo & Dump Settings ###
##############################

thermo 554
thermo_style custom step temp press etotal ke pe epair ebond eangle edihed eimp elong lx ly lz vol density v_eengxy v_eengxz v_eengyz v_etruexy v_etruexz v_etrueyz v_sxx v_syy v_szz v_sxy v_sxz v_syz f_sxx_ave f_syy_ave f_szz_ave f_sxy_ave f_sxz_ave f_syz_ave v_dir
dump 1 all custom/gz 36900 PA6_10052023_IFFREq_180S1_Sh2.lammpstrj.gz x y z type id

####################
### Run Settings ###
####################
neigh_modify    delay 0 every 1 check yes one 2500 page 100000
fix          1 all npt temp 300 300 100 xy 1 1 1000 yz 1 1 1000 x 1 1 1000 y 1 1 1000 z 1 1 1000
fix          2 all deform 1 xz erate 2e-07 flip no
# Breaking up the runs resets the pppm grid points which increases accuracy when box size changes
# Please note that the start and stop keywords are necessary so that the fix deform command deforms the box correctly over several runs
run		276753 start 0 stop $(v_quarter_steps*4)
run		276753 start 0 stop 1107012
PPPM initialization ...
  G vector (1/distance) = 0.3171046
  grid = 32 36 30
  stencil order = 5
  estimated absolute RMS force accuracy = 0.00027414527
  estimated relative force accuracy = 8.2558033e-07
  3d grid and FFT values/proc = 36075 17280
Generated 66 of 66 mixed pair_coeff terms from sixthpower/sixthpower mixing rule
Last active /omp style is kspace_style pppm/omp
Step          Temp          Press          TotEng         KinEng         PotEng         E_pair         E_bond        E_angle        E_dihed        E_impro         E_long           Lx             Ly             Lz           Volume        Density        v_eengxy       v_eengxz       v_eengyz      v_etruexy      v_etruexz      v_etrueyz        v_sxx          v_syy          v_szz          v_sxy          v_sxz          v_syz        f_sxx_ave      f_syy_ave      f_szz_ave      f_sxy_ave      f_sxz_ave      f_syz_ave        v_dir
0   302.5043       1506.7202     -6545.4916      3118.1058     -9663.5974     -9268.3622      1366.2721      1134.4964     -2931.2948      35.291087     -13217.94       31.74638       36.877313      26.67602       31230.182      1.0954878      0              0              0              0              0              0             -296.18043     -120.9203      -40.904532     -164.05585      130.42294      98.058573      0              0              0              0              0              0              2
Averages over the last 251 of 501 rows, steps 138500 to 276753:
Temp Press TotEng KinEng PotEng E_pair E_bond E_angle E_dihed E_impro E_long Lx Ly Lz Volume Density v_eengxy v_eengxz v_eengyz v_etruexy v_etruexz v_etrueyz v_sxx v_syy v_szz v_sxy v_sxz v_syz f_sxx_ave f_syy_ave f_szz_ave f_sxy_ave f_sxz_ave f_syz_ave v_dir
300.296 87.2439 -6530.78 3095.34 -9626.13 -9253 1336.73 1158.01 -2918.84 50.9814 -13211.9 31.8649 37.0567 26.65 31466 1.08732 -0.0101897 0.0415318 -0.016996 -0.0103104 0.0406638 -0.0172149 6.04169 -1.1874 -31.3742 -0.203214 27.317 3.89402 0.347107 -1.34276 -0.210949 0.363923 33.081 0.315993 2
Loop time of 4281.21 on 4 procs for 276753 steps with 3459 atoms

run		276753 start 0 stop $(v_quarter_steps*4)
run		276753 start 0 stop 1107012
PPPM initialization ...
  G vector (1/distance) = 0.31692137
  grid = 32 36 30
  stencil order = 5
  estimated absolute RMS force accuracy = 0.00027665748
  estimated relative force accuracy = 8.3314579e-07
  3d grid and FFT values/proc = 36075 17280
Generated 66 of 66 mixed pair_coeff terms from sixthpower/sixthpower mixing rule
Last active /omp style is kspace_style pppm/omp
Step          Temp          Press          TotEng         KinEng         PotEng         E_pair         E_bond        E_angle        E_dihed        E_impro         E_long           Lx             Ly             Lz           Volume        Density        v_eengxy       v_eengxz       v_eengyz      v_etruexy      v_etruexz      v_etrueyz        v_sxx          v_syy          v_szz          v_sxy          v_sxz          v_syz        f_sxx_ave      f_syy_ave      f_szz_ave      f_sxy_ave      f_sxz_ave      f_syz_ave        v_dir
276753   297.77029     -359.12333     -6519.6591      3069.3093     -9588.9684     -9234.9941      1364.2701      1140.5383     -2900.5732      41.790584     -13203.537      31.744659      36.914039      26.790935      31394.249      1.0897627     -0.015585185    0.055043093   -0.023707485   -0.01570791     0.053581613   -0.023993029   -194.36805      261.39211      42.140458      96.79735      -18.608987      81.002065      10.756891     -25.063212      5.2665624      7.9686552      40.090243     -31.618799      2
Averages over the last 251 of 502 rows, steps 415500 to 553506:
Temp Press TotEng KinEng PotEng E_pair E_bond E_angle E_dihed E_impro E_long Lx Ly Lz Volume Density v_eengxy v_eengxz v_eengyz v_etruexy v_etruexz v_etrueyz v_sxx v_syy v_szz v_sxy v_sxz v_syz f_sxx_ave f_syy_ave f_szz_ave f_sxy_ave f_sxz_ave f_syz_ave v_dir
300.002 -3.08225 -6518.09 3092.31 -9610.4 -9258.44 1344.67 1161.45 -2909.09 51.0117 -13199.6 31.3889 36.8413 27.1389 31381 1.09027 -0.00827602 0.0949907 -0.0114163 -0.00838056 0.0907206 -0.0115513 -3.71093 1.4924 3.15546 -3.6312 55.2236 -1.68351 0.15945 0.146764 -0.307915 0.0280501 57.6382 -0.521075 2
Loop time of 4285.14 on 4 procs for 276753 steps with 3459 atoms

run		276753 start 0 stop $(v_quarter_steps*4)
run		276753 start 0 stop 1107012
PPPM initialization ...
  G vector (1/distance) = 0.31654739
  grid = 32 36 32
  stencil order = 5
  estimated absolute RMS force accuracy = 0.00028255419
  estimated relative force accuracy = 8.5090356e-07
  3d grid and FFT values/proc = 38025 18432
Generated 66 of 66 mixed pair_coeff terms from sixthpower/sixthpower mixing rule
Last active /omp style is kspace_style pppm/omp
Step          Temp          Press          TotEng         KinEng         PotEng         E_pair         E_bond        E_angle        E_dihed        E_impro         E_long           Lx             Ly             Lz           Volume        Density        v_eengxy       v_eengxz       v_eengyz      v_etruexy      v_etruexz      v_etrueyz        v_sxx          v_syy          v_szz          v_sxy          v_sxz          v_syz        f_sxx_ave      f_syy_ave      f_szz_ave      f_sxy_ave      f_sxz_ave      f_syz_ave        v_dir
553506   299.05236     -1149.0316     -6499.6427      3082.5244     -9582.1671     -9238.5022      1400.2238      1111.005      -2892.4915      37.597741     -13178.84       30.780016      37.670231      27.231941      31575.173      1.0835185     -0.0032006878   0.10801357    -0.010544484   -0.003205821    0.10256884    -0.010600471    66.734461      110.56474      171.97767      24.103929      7.7416541      147.51899     -33.378785     -4.5159603     -16.091511      20.554151      51.619022      3.4883783      2
Averages over the last 251 of 501 rows, steps 691946 to 830259:
Temp Press TotEng KinEng PotEng E_pair E_bond E_angle E_dihed E_impro E_long Lx Ly Lz Volume Density v_eengxy v_eengxz v_eengyz v_etruexy v_etruexz v_etrueyz v_sxx v_syy v_szz v_sxy v_sxz v_syz f_sxx_ave f_syy_ave f_szz_ave f_sxy_ave f_sxz_ave f_syz_ave v_dir
300.059 17.9589 -6522.15 3092.91 -9615.06 -9250.44 1342.58 1160.15 -2916.8 49.4537 -13183.7 31.0118 36.8059 27.4806 31364.1 1.09085 -0.0116492 0.146683 -0.0230362 -0.0117902 0.136849 -0.0234042 -14.2291 2.70185 6.0682 -8.01729 82.6306 3.50804 -0.361145 -0.20253 -0.395689 -0.637896 74.413 0.243579 2
Loop time of 4518.13 on 4 procs for 276753 steps with 3459 atoms

run		276753 start 0 stop $(v_quarter_steps*4)
run		276753 start 0 stop 1107012
PPPM initialization ...
  G vector (1/distance) = 0.31556692
  grid = 32 36 32
  stencil order = 5
  estimated absolute RMS force accuracy = 0.00029912101
  estimated relative force accuracy = 9.0079405e-07
  3d grid and FFT values/proc = 38025 18432
Generated 66 of 66 mixed pair_coeff terms from sixthpower/sixthpower mixing rule
Last active /omp style is kspace_style pppm/omp
Step          Temp          Press          TotEng         KinEng         PotEng         E_pair         E_bond        E_angle        E_dihed        E_impro         E_long           Lx             Ly             Lz           Volume        Density        v_eengxy       v_eengxz       v_eengyz      v_etruexy      v_etruexz      v_etrueyz        v_sxx          v_syy          v_szz          v_sxy          v_sxz          v_syz        f_sxx_ave      f_syy_ave      f_szz_ave      f_sxy_ave      f_sxz_ave      f_syz_ave        v_dir
830259   298.55098      1187.3997     -6563.0508      3077.3563     -9640.4071     -9208.2857      1274.7354      1137.3083     -2899.988       55.822907     -13150.592      31.744952      37.1647        27.063558      31929.359      1.0714992     -0.0049060169   0.16219043    -0.024258792   -0.0049180909   0.15030653    -0.024557884   -243.09248     -46.666576     -71.180771     -331.0822       230.42034     -25.6667       -23.063038     -23.309565     -29.552723      8.4408474      91.465426     -0.82195986     2
Averages over the last 251 of 502 rows, steps 968946 to 1107012:
Temp Press TotEng KinEng PotEng E_pair E_bond E_angle E_dihed E_impro E_long Lx Ly Lz Volume Density v_eengxy v_eengxz v_eengyz v_etruexy v_etruexz v_etrueyz v_sxx v_syy v_szz v_sxy v_sxz v_syz f_sxx_ave f_syy_ave f_szz_ave f_sxy_ave f_sxz_ave f_syz_ave v_dir
300.349 -118.706 -6501.9 3095.89 -9597.79 -9235.45 1338.3 1164.27 -2916.87 51.9549 -13146 31.5317 37.1405 26.6998 31266.5 1.09427 -0.0203094 0.204426 -0.0365942 -0.0205996 0.185982 -0.0373495 10.5644 18.9313 6.58794 -9.62291 87.9628 1.7551 -0.0988749 -0.188513 0.730521 0.456328 87.9033 -0.854242 2
Loop time of 4507.36 on 4 procs for 276753 steps with 3459 atoms

write_data PA6_10052023_IFFREq_180S1_Sh2.dat
System init for write_data ...
PPPM initialization ...
  G vector (1/distance) = 0.3179285
  grid = 32 36 36
  stencil order = 5
  estimated absolute RMS force accuracy = 0.0002588693
  estimated relative force accuracy = 7.7957721e-07
  3d grid and FFT values/proc = 41925 20736
Generated 66 of 66 mixed pair_coeff terms from sixthpower/sixthpower mixing rule
Last active /omp style is kspace_style pppm/omp
