timestep 1 # 1 fs
variable strain equal 0.2214028
variable strain_rate_s equal 200000000.0
variable dir equal 1
# dir 1 means xy
# dir 2 means xz
# dir 3 means yz
##############################
### Force Field Parameters ###
##############################
atom_style	full
bond_style hybrid class2 morse
angle_style class2
dihedral_style class2
improper_style class2
special_bonds lj/coul 0 0 1
pair_style lj/class2/coul/long 10.0
pair_modify mix sixthpower
kspace_style pppm 1e-6
read_data       PA6_10052023_IFFREq_180S1.dat.gz
Reading data file ...
  orthogonal box = (-15.87319 -18.438657 -13.33801) to (15.87319 18.438657 13.33801)
  reading atoms ...
  3459 atoms
  reading velocities ...
  3459 velocities
  scanning bonds ...
  scanning angles ...
  scanning dihedrals ...
  scanning impropers ...
  reading bonds ...
  3446 bonds
  reading angles ...
  6493 angles
  reading dihedrals ...
  9334 dihedrals
  reading impropers ...
  3960 impropers
Finding 1-2 1-3 1-4 neighbors ...
     4 = max # of 1-2 neighbors
     6 = max # of 1-3 neighbors
    10 = max # of special neighbors
change_box all triclinic remap
Changing box ...
  triclinic box = (-15.87319 -18.438657 -13.33801) to (15.87319 18.438657 13.33801) with tilt (0 0 0)
kspace_style pppm 1e-6 # You MUST redefine kspace after changing the box to triclinic

# Include IFF-R bond coefficients for PA6 example
include PA6_IFFR.coeff
# IFF-R bond coefficients for Nylon 6
bond_coeff 1 class2 0.965 532.506 -1282.9 2004.77
bond_coeff 2 class2 1.34 400 0 0
bond_coeff 3 morse 82.696 1.941 1.514
bond_coeff 4 class2 1.216 823.795 -1878.79 2303.53
bond_coeff 5 class2 1.101 345 -691.89 844.6
bond_coeff 6 morse 82.696 1.914 1.53
bond_coeff 7 morse 72.897 2.25 1.457
bond_coeff 8 class2 1.006 466.74 -1073.6 1251.11
bond_coeff 9 morse 72.897 2.12 1.452
bond_coeff 10 morse 72.897 2.22 1.416
bond_coeff 11 class2 0.97 563.28 -1428.22 1902.12
bond_coeff 12 class2 1.01 462.75 -1053.63 1545.76
bond_coeff 13 class2 1.3649 368.731 -832.478 1274.02
bond_coeff 14 class2 1.202 851.14 -1918.49 2160.77
bond_coeff 15 morse 82.696 1.74 1.5202

variable        strain_rate_fs equal 200000000*1e-15
variable        totaltime equal 0.2214028/2e-07
variable        steps equal $(round(v_totaltime/dt))
variable        steps equal 1107014
variable        quarter_steps equal $(floor(v_steps/4))
variable        quarter_steps equal 276753
variable        eeng equal time*2e-07
variable        etrue equal ln(1+v_eeng)

variable thermo_freq equal $(round(v_steps/2000))
variable thermo_freq equal 554
variable dump_freq equal $(round(v_steps/30))
variable dump_freq equal 36900

##############################
########### Strains ##########
##############################
#cellgamma, cellbeta, and cellalpha refer to the crystallographic angles

variable	eengxy equal (PI/180*(90-cellgamma))
variable	eengxz equal (PI/180*(90-cellbeta))
variable	eengyz equal (PI/180*(90-cellalpha))
variable    etruexy equal ln(1+v_eengxy)
variable    etruexz equal ln(1+v_eengxz)
variable    etrueyz equal ln(1+v_eengyz)

##############################
########## Stresses ##########
##############################

compute         p all pressure thermo_temp
variable        sxx equal -0.101325*c_p[1] #in MPa
variable        syy equal -0.101325*c_p[2] #in MPa
variable        szz equal -0.101325*c_p[3] #in MPa
variable        sxy equal -0.101325*c_p[4] #in MPa
variable        sxz equal -0.101325*c_p[5] #in MPa
variable        syz equal -0.101325*c_p[6] #in MPa
fix             sxx_ave all ave/time 1 554 554 v_sxx
fix             syy_ave all ave/time 1 554 554 v_syy
fix             szz_ave all ave/time 1 554 554 v_szz
fix             sxy_ave all ave/time 1 554 554 v_sxy
fix             sxz_ave all ave/time 1 554 554 v_sxz
fix             syz_ave all ave/time 1 554 554 v_syz

##############################
### Thermo & Dump Settings ###
##############################

thermo 554
thermo_style custom step temp press etotal ke pe epair ebond eangle edihed eimp elong lx ly lz vol density v_eengxy v_eengxz v_eengyz v_etruexy v_etruexz v_etrueyz v_sxx v_syy v_szz v_sxy v_sxz v_syz f_sxx_ave f_syy_ave f_szz_ave f_sxy_ave f_sxz_ave f_syz_ave v_dir
dump 1 all custom/gz 36900 PA6_10052023_IFFREq_180S1_Sh1.lammpstrj.gz x y z type id

####################
### Run Settings ###
####################
neigh_modify    delay 0 every 1 check yes one 2500 page 100000
fix          1 all npt temp 300 300 100 xz 1 1 1000 yz 1 1 1000 x 1 1 1000 y 1 1 1000 z 1 1 1000
fix          2 all deform 1 xy erate 2e-07 flip no
# Breaking up the runs resets the pppm grid points which increases accuracy when box size changes
# Please note that the start and stop keywords are necessary so that the fix deform command deforms the box correctly over several runs
run		276753 start 0 stop $(v_quarter_steps*4)
run		276753 start 0 stop 1107012
PPPM initialization ...
  G vector (1/distance) = 0.3171046
  grid = 32 36 30
  stencil order = 5
  estimated absolute RMS force accuracy = 0.00027414527
  estimated relative force accuracy = 8.2558033e-07
  3d grid and FFT values/proc = 36075 17280
Generated 66 of 66 mixed pair_coeff terms from sixthpower/sixthpower mixing rule
Last active /omp style is kspace_style pppm/omp
Step          Temp          Press          TotEng         KinEng         PotEng         E_pair         E_bond        E_angle        E_dihed        E_impro         E_long           Lx             Ly             Lz           Volume        Density        v_eengxy       v_eengxz       v_eengyz      v_etruexy      v_etruexz      v_etrueyz        v_sxx          v_syy          v_szz          v_sxy          v_sxz          v_syz        f_sxx_ave      f_syy_ave      f_szz_ave      f_sxy_ave      f_sxz_ave      f_syz_ave        v_dir
0   302.5043       1506.7202     -6545.4916      3118.1058     -9663.5974     -9268.3622      1366.2721      1134.4964     -2931.2948      35.291087     -13217.94       31.74638       36.877313      26.67602       31230.182      1.0954878      0              0              0              0              0              0             -296.18043     -120.9203      -40.904532     -164.05585      130.42294      98.058573      0              0              0              0              0              0              1
Averages over the last 251 of 501 rows, steps 138500 to 276753:
Temp Press TotEng KinEng PotEng E_pair E_bond E_angle E_dihed E_impro E_long Lx Ly Lz Volume Density v_eengxy v_eengxz v_eengyz v_etruexy v_etruexz v_etrueyz v_sxx v_syy v_szz v_sxy v_sxz v_syz f_sxx_ave f_syy_ave f_szz_ave f_sxy_ave f_sxz_ave f_syz_ave v_dir
299.666 -55.4631 -6531.55 3088.85 -9620.4 -9248.46 1343.23 1155.4 -2921.57 51.0089 -13210.7 31.9844 36.9171 26.5757 31378.4 1.09037 0.0414881 -0.0190133 -0.0040745 0.0406206 -0.0192666 -0.00417111 11.3154 2.82684 2.7172 41.8991 13.7645 2.45609 0.517873 0.0819435 -1.10417 37.8207 -0.0285206 0.528844 1
Loop time of 4267.57 on 4 procs for 276753 steps with 3459 atoms

run		276753 start 0 stop $(v_quarter_steps*4)
run		276753 start 0 stop 1107012
PPPM initialization ...
  G vector (1/distance) = 0.31539173
  grid = 32 36 30
  stencil order = 5
  estimated absolute RMS force accuracy = 0.00030439532
  estimated relative force accuracy = 9.1667748e-07
  3d grid and FFT values/proc = 36075 17280
Generated 66 of 66 mixed pair_coeff terms from sixthpower/sixthpower mixing rule
Last active /omp style is kspace_style pppm/omp
Step          Temp          Press          TotEng         KinEng         PotEng         E_pair         E_bond        E_angle        E_dihed        E_impro         E_long           Lx             Ly             Lz           Volume        Density        v_eengxy       v_eengxz       v_eengyz      v_etruexy      v_etruexz      v_etrueyz        v_sxx          v_syy          v_szz          v_sxy          v_sxz          v_syz        f_sxx_ave      f_syy_ave      f_szz_ave      f_sxy_ave      f_sxz_ave      f_syz_ave        v_dir
276753   292.93508     -1544.6068     -6648.1129      3019.4696     -9667.5826     -9248.4835      1352.8153      1121.3752     -2935.5545      42.264957     -13142.417      32.242734      36.203093      27.011946      31530.685      1.0850472      0.05632178    -0.010689448   -0.0037363653   0.054792855   -0.010746991   -0.003743363    221.27648      131.30011      116.94525     -21.664343     -11.164309     -25.583659     -32.028483      2.2593265     -2.9395698      49.776449     -0.34993869     15.877298      1
Averages over the last 251 of 502 rows, steps 415500 to 553506:
Temp Press TotEng KinEng PotEng E_pair E_bond E_angle E_dihed E_impro E_long Lx Ly Lz Volume Density v_eengxy v_eengxz v_eengyz v_etruexy v_etruexz v_etrueyz v_sxx v_syy v_szz v_sxy v_sxz v_syz f_sxx_ave f_syy_ave f_szz_ave f_sxy_ave f_sxz_ave f_syz_ave v_dir
299.705 85.7753 -6514.43 3089.25 -9603.68 -9219.03 1333.25 1154.59 -2925.32 52.8208 -13137.7 31.8689 37.2941 26.5847 31594.4 1.08291 0.095566 -0.0280844 -0.0198567 0.0912458 -0.0285994 -0.0201483 -10.8671 -1.84208 -13.3643 53.3815 10.0668 -2.48825 -0.268072 0.0681098 -0.380072 58.444 0.0261669 -0.554132 1
Loop time of 4273.57 on 4 procs for 276753 steps with 3459 atoms

run		276753 start 0 stop $(v_quarter_steps*4)
run		276753 start 0 stop 1107012
PPPM initialization ...
  G vector (1/distance) = 0.31689032
  grid = 32 40 30
  stencil order = 5
  estimated absolute RMS force accuracy = 0.00027458388
  estimated relative force accuracy = 8.2690119e-07
  3d grid and FFT values/proc = 38961 19200
Generated 66 of 66 mixed pair_coeff terms from sixthpower/sixthpower mixing rule
Last active /omp style is kspace_style pppm/omp
Step          Temp          Press          TotEng         KinEng         PotEng         E_pair         E_bond        E_angle        E_dihed        E_impro         E_long           Lx             Ly             Lz           Volume        Density        v_eengxy       v_eengxz       v_eengyz      v_etruexy      v_etruexz      v_etrueyz        v_sxx          v_syy          v_szz          v_sxy          v_sxz          v_syz        f_sxx_ave      f_syy_ave      f_szz_ave      f_sxy_ave      f_sxz_ave      f_syz_ave        v_dir
553506   297.54027     -313.76342     -6424.7377      3066.9384     -9491.6761     -9171.2443      1333.7297      1197.4145     -2899.6778      48.101862     -13197.65       31.922889      37.68774       26.589432      31989.787      1.0694752      0.10790001    -0.039546834   -0.044289308    0.10246634    -0.040350058   -0.045300035    223.24595     -113.91905     -13.950664     -109.30844      7.8678245     -184.11238      20.72221       25.417988     -6.5190559      58.387278      1.1784549     -17.344471      1
Averages over the last 251 of 501 rows, steps 691946 to 830259:
Temp Press TotEng KinEng PotEng E_pair E_bond E_angle E_dihed E_impro E_long Lx Ly Lz Volume Density v_eengxy v_eengxz v_eengyz v_etruexy v_etruexz v_etrueyz v_sxx v_syy v_szz v_sxy v_sxz v_syz f_sxx_ave f_syy_ave f_szz_ave f_sxy_ave f_sxz_ave f_syz_ave v_dir
300.215 -77.7112 -6510.51 3094.51 -9605.02 -9238.03 1335.03 1162.03 -2915.87 51.828 -13206.3 31.5453 37.3399 26.6706 31412.6 1.08917 0.149253 -0.0305075 -0.0264517 0.139087 -0.0310799 -0.026918 -2.20957 7.60715 18.2247 75.554 -11.1255 1.35534 -1.27682 0.089371 -0.176602 76.9412 0.570085 -0.0268059 1
Loop time of 4506.6 on 4 procs for 276753 steps with 3459 atoms

run		276753 start 0 stop $(v_quarter_steps*4)
run		276753 start 0 stop 1107012
PPPM initialization ...
  G vector (1/distance) = 0.31477256
  grid = 32 40 30
  stencil order = 5
  estimated absolute RMS force accuracy = 0.00031688688
  estimated relative force accuracy = 9.5429544e-07
  3d grid and FFT values/proc = 38961 19200
Generated 66 of 66 mixed pair_coeff terms from sixthpower/sixthpower mixing rule
Last active /omp style is kspace_style pppm/omp
Step          Temp          Press          TotEng         KinEng         PotEng         E_pair         E_bond        E_angle        E_dihed        E_impro         E_long           Lx             Ly             Lz           Volume        Density        v_eengxy       v_eengxz       v_eengyz      v_etruexy      v_etruexz      v_etrueyz        v_sxx          v_syy          v_szz          v_sxy          v_sxz          v_syz        f_sxx_ave      f_syy_ave      f_szz_ave      f_sxy_ave      f_sxz_ave      f_syz_ave        v_dir
830259   297.63847      678.6345      -6532.7108      3067.9505     -9600.6613     -9239.9482      1302.628       1184.2403     -2898.7306      51.14924      -13115.59       31.386784      37.386501      26.819877      31471.571      1.0870853      0.1623487     -0.013981229   -0.024347168    0.1504427     -0.014079887   -0.024648461   -129.85647     -85.581013      9.1495576      24.108929      169.63002      51.004772      24.562946     -6.6715926      2.4264395      95.924686     -9.428518      -13.489002      1
Averages over the last 251 of 502 rows, steps 968946 to 1107012:
Temp Press TotEng KinEng PotEng E_pair E_bond E_angle E_dihed E_impro E_long Lx Ly Lz Volume Density v_eengxy v_eengxz v_eengyz v_etruexy v_etruexz v_etrueyz v_sxx v_syy v_szz v_sxy v_sxz v_syz f_sxx_ave f_syy_ave f_szz_ave f_sxy_ave f_sxz_ave f_syz_ave v_dir
300.475 98.9225 -6478.01 3097.19 -9575.2 -9212.47 1335.54 1168.44 -2917.49 50.7867 -13117.2 31.9068 37.2492 26.6371 31655.6 1.08081 0.202746 -0.0131345 -0.0215264 0.184586 -0.0133164 -0.0218503 -15.9652 -15.0557 0.950922 75.8541 -0.024186 -0.83433 0.693166 -0.976286 -0.314867 77.8699 0.322596 -0.357854 1
Loop time of 4515.73 on 4 procs for 276753 steps with 3459 atoms

write_data PA6_10052023_IFFREq_180S1_Sh1.dat
System init for write_data ...
PPPM initialization ...
  G vector (1/distance) = 0.31794999
  grid = 32 45 30
  stencil order = 5
  estimated absolute RMS force accuracy = 0.00025768283
  estimated relative force accuracy = 7.7600418e-07
  3d grid and FFT values/proc = 43290 22080
Generated 66 of 66 mixed pair_coeff terms from sixthpower/sixthpower mixing rule
Last active /omp style is kspace_style pppm/omp
