timestep 1 # 1 fs
variable strain equal 0.2214028
variable strain_rate_s equal 200000000.0
variable dir equal 3
# dir 1 means xy
# dir 2 means xz
# dir 3 means yz
##############################
### Force Field Parameters ###
##############################
atom_style	full
bond_style hybrid class2 morse
angle_style class2
dihedral_style class2
improper_style class2
special_bonds lj/coul 0 0 1
pair_style lj/class2/coul/long 10.0
pair_modify mix sixthpower
kspace_style pppm 1e-6
read_data       PA6_10052023_IFFREq_180S1.dat.gz
Reading data file ...
  orthogonal box = (-15.87319 -18.438657 -13.33801) to (15.87319 18.438657 13.33801)
  reading atoms ...
  3459 atoms
  reading velocities ...
  3459 velocities
  scanning bonds ...
  scanning angles ...
  scanning dihedrals ...
  scanning impropers ...
  reading bonds ...
  3446 bonds
  reading angles ...
  6493 angles
  reading dihedrals ...
  9334 dihedrals
  reading impropers ...
  3960 impropers
Finding 1-2 1-3 1-4 neighbors ...
     4 = max # of 1-2 neighbors
     6 = max # of 1-3 neighbors
    10 = max # of special neighbors
change_box all triclinic remap
Changing box ...
  triclinic box = (-15.87319 -18.438657 -13.33801) to (15.87319 18.438657 13.33801) with tilt (0 0 0)
kspace_style pppm 1e-6 # You MUST redefine kspace after changing the box to triclinic

# Include IFF-R bond coefficients for PA6 example
include PA6_IFFR.coeff
# IFF-R bond coefficients for Nylon 6
bond_coeff 1 class2 0.965 532.506 -1282.9 2004.77
bond_coeff 2 class2 1.34 400 0 0
bond_coeff 3 morse 82.696 1.941 1.514
bond_coeff 4 class2 1.216 823.795 -1878.79 2303.53
bond_coeff 5 class2 1.101 345 -691.89 844.6
bond_coeff 6 morse 82.696 1.914 1.53
bond_coeff 7 morse 72.897 2.25 1.457
bond_coeff 8 class2 1.006 466.74 -1073.6 1251.11
bond_coeff 9 morse 72.897 2.12 1.452
bond_coeff 10 morse 72.897 2.22 1.416
bond_coeff 11 class2 0.97 563.28 -1428.22 1902.12
bond_coeff 12 class2 1.01 462.75 -1053.63 1545.76
bond_coeff 13 class2 1.3649 368.731 -832.478 1274.02
bond_coeff 14 class2 1.202 851.14 -1918.49 2160.77
bond_coeff 15 morse 82.696 1.74 1.5202

variable        strain_rate_fs equal 200000000*1e-15
variable        totaltime equal 0.2214028/2e-07
variable        steps equal $(round(v_totaltime/dt))
variable        steps equal 1107014
variable        quarter_steps equal $(floor(v_steps/4))
variable        quarter_steps equal 276753
variable        eeng equal time*2e-07
variable        etrue equal ln(1+v_eeng)

variable thermo_freq equal $(round(v_steps/2000))
variable thermo_freq equal 554
variable dump_freq equal $(round(v_steps/30))
variable dump_freq equal 36900

##############################
########### Strains ##########
##############################
#cellgamma, cellbeta, and cellalpha refer to the crystallographic angles

variable	eengxy equal (PI/180*(90-cellgamma))
variable	eengxz equal (PI/180*(90-cellbeta))
variable	eengyz equal (PI/180*(90-cellalpha))
variable    etruexy equal ln(1+v_eengxy)
variable    etruexz equal ln(1+v_eengxz)
variable    etrueyz equal ln(1+v_eengyz)

##############################
########## Stresses ##########
##############################

compute         p all pressure thermo_temp
variable        sxx equal -0.101325*c_p[1] #in MPa
variable        syy equal -0.101325*c_p[2] #in MPa
variable        szz equal -0.101325*c_p[3] #in MPa
variable        sxy equal -0.101325*c_p[4] #in MPa
variable        sxz equal -0.101325*c_p[5] #in MPa
variable        syz equal -0.101325*c_p[6] #in MPa
fix             sxx_ave all ave/time 1 554 554 v_sxx
fix             syy_ave all ave/time 1 554 554 v_syy
fix             szz_ave all ave/time 1 554 554 v_szz
fix             sxy_ave all ave/time 1 554 554 v_sxy
fix             sxz_ave all ave/time 1 554 554 v_sxz
fix             syz_ave all ave/time 1 554 554 v_syz

##############################
### Thermo & Dump Settings ###
##############################

thermo 554
thermo_style custom step temp press etotal ke pe epair ebond eangle edihed eimp elong lx ly lz vol density v_eengxy v_eengxz v_eengyz v_etruexy v_etruexz v_etrueyz v_sxx v_syy v_szz v_sxy v_sxz v_syz f_sxx_ave f_syy_ave f_szz_ave f_sxy_ave f_sxz_ave f_syz_ave v_dir
dump 1 all custom/gz 36900 PA6_10052023_IFFREq_180S1_Sh3.lammpstrj.gz x y z type id

####################
### Run Settings ###
####################
neigh_modify    delay 0 every 1 check yes one 2500 page 100000
fix          1 all npt temp 300 300 100 xy 1 1 1000 xz 1 1 1000 x 1 1 1000 y 1 1 1000 z 1 1 1000
fix          2 all deform 1 yz erate 2e-07 flip no
# Breaking up the runs resets the pppm grid points which increases accuracy when box size changes
# Please note that the start and stop keywords are necessary so that the fix deform command deforms the box correctly over several runs
run		276753 start 0 stop $(v_quarter_steps*4)
run		276753 start 0 stop 1107012
PPPM initialization ...
  G vector (1/distance) = 0.3171046
  grid = 32 36 30
  stencil order = 5
  estimated absolute RMS force accuracy = 0.00027414527
  estimated relative force accuracy = 8.2558033e-07
  3d grid and FFT values/proc = 36075 17280
Generated 66 of 66 mixed pair_coeff terms from sixthpower/sixthpower mixing rule
Last active /omp style is kspace_style pppm/omp
Step          Temp          Press          TotEng         KinEng         PotEng         E_pair         E_bond        E_angle        E_dihed        E_impro         E_long           Lx             Ly             Lz           Volume        Density        v_eengxy       v_eengxz       v_eengyz      v_etruexy      v_etruexz      v_etrueyz        v_sxx          v_syy          v_szz          v_sxy          v_sxz          v_syz        f_sxx_ave      f_syy_ave      f_szz_ave      f_sxy_ave      f_sxz_ave      f_syz_ave        v_dir
0   302.5043       1506.7202     -6545.4916      3118.1058     -9663.5974     -9268.3622      1366.2721      1134.4964     -2931.2948      35.291087     -13217.94       31.74638       36.877313      26.67602       31230.182      1.0954878      0              0              0              0              0              0             -296.18043     -120.9203      -40.904532     -164.05585      130.42294      98.058573      0              0              0              0              0              0              3
Averages over the last 251 of 501 rows, steps 138500 to 276753:
Temp Press TotEng KinEng PotEng E_pair E_bond E_angle E_dihed E_impro E_long Lx Ly Lz Volume Density v_eengxy v_eengxz v_eengyz v_etruexy v_etruexz v_etrueyz v_sxx v_syy v_szz v_sxy v_sxz v_syz f_sxx_ave f_syy_ave f_szz_ave f_sxy_ave f_sxz_ave f_syz_ave v_dir
300.031 -42.2779 -6546.4 3092.62 -9639.02 -9253.6 1339.42 1153.28 -2927.55 49.4302 -13210.8 31.783 36.732 26.8125 31300.4 1.09307 -0.0396213 -0.014837 0.0418404 -0.0405117 -0.0150145 0.04096 -3.56041 3.23189 13.18 -7.17861 0.830774 26.3686 0.3897 -0.656251 0.0246283 0.169459 0.312306 27.3002 3
Loop time of 4369.59 on 4 procs for 276753 steps with 3459 atoms

run		276753 start 0 stop $(v_quarter_steps*4)
run		276753 start 0 stop 1107012
PPPM initialization ...
  G vector (1/distance) = 0.31820572
  grid = 32 40 30
  stencil order = 5
  estimated absolute RMS force accuracy = 0.00025440452
  estimated relative force accuracy = 7.6613167e-07
  3d grid and FFT values/proc = 38961 19200
Generated 66 of 66 mixed pair_coeff terms from sixthpower/sixthpower mixing rule
Last active /omp style is kspace_style pppm/omp
Step          Temp          Press          TotEng         KinEng         PotEng         E_pair         E_bond        E_angle        E_dihed        E_impro         E_long           Lx             Ly             Lz           Volume        Density        v_eengxy       v_eengxz       v_eengyz      v_etruexy      v_etruexz      v_etrueyz        v_sxx          v_syy          v_szz          v_sxy          v_sxz          v_syz        f_sxx_ave      f_syy_ave      f_szz_ave      f_sxy_ave      f_sxz_ave      f_syz_ave        v_dir
276753   302.19552     -653.16099     -6514.1438      3114.923      -9629.0668     -9255.2934      1359.5522      1100.6333     -2893.8143      59.855535     -13255.252      31.796501      36.797098      26.876952      31446.544      1.0879505     -0.064165693   -0.016184476    0.055800715   -0.066316841   -0.016316875    0.054299451    114.11067     -115.18247      199.61642      27.693592      26.665725      32.104017      4.4502067      4.9948978     -1.212561      -6.0014277     -7.5953766      27.037905      3
Averages over the last 251 of 502 rows, steps 415500 to 553506:
Temp Press TotEng KinEng PotEng E_pair E_bond E_angle E_dihed E_impro E_long Lx Ly Lz Volume Density v_eengxy v_eengxz v_eengyz v_etruexy v_etruexz v_etrueyz v_sxx v_syy v_szz v_sxy v_sxz v_syz f_sxx_ave f_syy_ave f_szz_ave f_sxy_ave f_sxz_ave f_syz_ave v_dir
299.778 23.8616 -6541.95 3090 -9631.95 -9252.36 1339.01 1155.94 -2924.81 50.2698 -13258.2 32.2088 36.2563 26.8697 31375.7 1.09046 -0.0766542 -0.0173199 0.0970408 -0.0798659 -0.0175738 0.0925852 -12.0385 -2.97281 7.75801 -2.18927 0.483333 23.1511 -0.306457 0.819017 0.0600444 -0.539948 -0.572883 29.8334 3
Loop time of 4572.12 on 4 procs for 276753 steps with 3459 atoms

run		276753 start 0 stop $(v_quarter_steps*4)
run		276753 start 0 stop 1107012
PPPM initialization ...
  G vector (1/distance) = 0.31800138
  grid = 32 40 32
  stencil order = 5
  estimated absolute RMS force accuracy = 0.00025757755
  estimated relative force accuracy = 7.7568715e-07
  3d grid and FFT values/proc = 41067 20480
Generated 66 of 66 mixed pair_coeff terms from sixthpower/sixthpower mixing rule
Last active /omp style is kspace_style pppm/omp
Step          Temp          Press          TotEng         KinEng         PotEng         E_pair         E_bond        E_angle        E_dihed        E_impro         E_long           Lx             Ly             Lz           Volume        Density        v_eengxy       v_eengxz       v_eengyz      v_etruexy      v_etruexz      v_etrueyz        v_sxx          v_syy          v_szz          v_sxy          v_sxz          v_syz        f_sxx_ave      f_syy_ave      f_szz_ave      f_sxy_ave      f_sxz_ave      f_syz_ave        v_dir
553506   295.86856      1758.9163     -6574.5499      3049.7069     -9624.2568     -9258.2413      1361.0185      1159.5998     -2937.7691      51.135426     -13253.407      32.632503      36.169052      26.689426      31501.174      1.0860637     -0.097998995   -0.023778966    0.11197608    -0.10313964    -0.024066249    0.10613869    -131.94978     -262.15857     -140.55825      73.946583     -77.383177      150.29811      0.83571004     35.395137      16.528014     -20.160497     -14.651276      36.359016      3
Averages over the last 251 of 501 rows, steps 691946 to 830259:
Temp Press TotEng KinEng PotEng E_pair E_bond E_angle E_dihed E_impro E_long Lx Ly Lz Volume Density v_eengxy v_eengxz v_eengyz v_etruexy v_etruexz v_etrueyz v_sxx v_syy v_szz v_sxy v_sxz v_syz f_sxx_ave f_syy_ave f_szz_ave f_sxy_ave f_sxz_ave f_syz_ave v_dir
299.953 17.77 -6530.43 3091.81 -9622.24 -9254.26 1341.35 1160.77 -2919.44 49.3457 -13248.9 32.454 35.5783 27.0746 31260.1 1.09448 -0.104661 -0.00705316 0.148784 -0.110651 -0.00713112 0.138683 -1.33507 -4.31658 0.250008 -1.96535 -1.15088 64.4624 -0.223119 -0.347043 0.948106 0.31652 -0.69922 67.8767 3
Loop time of 4827.61 on 4 procs for 276753 steps with 3459 atoms

run		276753 start 0 stop $(v_quarter_steps*4)
run		276753 start 0 stop 1107012
PPPM initialization ...
  G vector (1/distance) = 0.31517492
  grid = 32 40 32
  stencil order = 5
  estimated absolute RMS force accuracy = 0.00030909398
  estimated relative force accuracy = 9.3082734e-07
  3d grid and FFT values/proc = 41067 20480
Generated 66 of 66 mixed pair_coeff terms from sixthpower/sixthpower mixing rule
Last active /omp style is kspace_style pppm/omp
Step          Temp          Press          TotEng         KinEng         PotEng         E_pair         E_bond        E_angle        E_dihed        E_impro         E_long           Lx             Ly             Lz           Volume        Density        v_eengxy       v_eengxz       v_eengyz      v_etruexy      v_etruexz      v_etrueyz        v_sxx          v_syy          v_szz          v_sxy          v_sxz          v_syz        f_sxx_ave      f_syy_ave      f_szz_ave      f_sxy_ave      f_sxz_ave      f_syz_ave        v_dir
830259   303.7716      -93.564323     -6454.2287      3131.1686     -9585.3973     -9224.2364      1324.1162      1186.033      -2916.5642      45.254093     -13132.28       32.859033      35.37683       27.040949      31433.709      1.0883947     -0.12276308    -0.01636908     0.16314531    -0.13097817    -0.016504534    0.15112781     224.19588     -73.543233     -122.21144      110.67563     -268.60567      141.05691     -0.60545413    -43.595085      45.059872     -15.556609      2.0017674      94.313844      3
Averages over the last 251 of 502 rows, steps 968946 to 1107012:
Temp Press TotEng KinEng PotEng E_pair E_bond E_angle E_dihed E_impro E_long Lx Ly Lz Volume Density v_eengxy v_eengxz v_eengyz v_etruexy v_etruexz v_etrueyz v_sxx v_syy v_szz v_sxy v_sxz v_syz f_sxx_ave f_syy_ave f_szz_ave f_sxy_ave f_sxz_ave f_syz_ave v_dir
299.971 -82.323 -6544.78 3091.99 -9636.77 -9247.09 1344.42 1155.58 -2937.37 47.6889 -13131.1 32.4283 35.6971 27.0239 31280.1 1.09378 -0.115688 -0.021678 0.203296 -0.123078 -0.0219874 0.185045 6.62296 11.2363 7.16487 -2.11385 -1.12018 68.3059 -0.444367 -0.0278964 0.577147 -0.833828 0.0591273 69.612 3
Loop time of 4893.46 on 4 procs for 276753 steps with 3459 atoms

write_data PA6_10052023_IFFREq_180S1_Sh3.dat
System init for write_data ...
PPPM initialization ...
  G vector (1/distance) = 0.31832248
  grid = 32 40 36
  stencil order = 5
  estimated absolute RMS force accuracy = 0.00025261959
  estimated relative force accuracy = 7.607564e-07
  3d grid and FFT values/proc = 45279 23040
Generated 66 of 66 mixed pair_coeff terms from sixthpower/sixthpower mixing rule
Last active /omp style is kspace_style pppm/omp
